reference-matpower/RTS_GMLC.m
function mpc = RTS_GMLC

%%%%%%%%%%%%%%%%%%%%%%%%%%%%%% RTS-GMLC Test Case %%%%%%%%%%%%%%%%%%%%%%%%%%%%%%
%%%%%%%%%%%%%%% By: Clayton Barrows, Ali Ehlen, Matt O Connell, %%%%%%%%%%%%%%%%
%%%%%%%%%% Dheepak Krishnamurthy, Brendan McBennett, and Aaron Bloom %%%%%%%%%%%
%%%%%%%%%%%%%%%%%%% National Renewable Energy Lab, Golden CO %%%%%%%%%%%%%%%%%%%
%%%%%%%%%%%%%%%%%%%%%%%%%%%%%%%%%%%%%%%%%%%%%%%%%%%%%%%%%%%%%%%%%%%%%%%%%%%%%%%%

%% MATPOWER Case Format : Version 2
mpc.version = '2';

%%-----  Power Flow Data  -----%%
%% system MVA base
mpc.baseMVA = 100.0;

%% area data
% area refbus
mpc.areas = [
        1    101;
        2    201;
        3    301;
            ];

%% bus data
%	bus_i	type	Pd	Qd	Gs	Bs	area	Vm	Va	baseKV	zone	Vmax	Vmin
mpc.bus = [
	101	2	108.0	22.0	0.0	0.0	1	1.04777	-7.74152	138.0	11	1.05	0.95
	102	2	97.0	20.0	0.0	0.0	1	1.04783	-7.81784	138.0	12	1.05	0.95
	103	1	180.0	37.0	0.0	0.0	1	1.01085	-7.21090	138.0	11	1.05	0.95
	104	1	74.0	15.0	0.0	0.0	1	1.01765	-10.56614	138.0	11	1.05	0.95
	105	1	71.0	14.0	0.0	0.0	1	1.03568	-10.70887	138.0	11	1.05	0.95
	106	1	136.0	28.0	0.0	-100.0	1	1.03242	-13.27944	138.0	12	1.05	0.95
	107	2	125.0	25.0	0.0	0.0	1	1.03745	-11.27673	138.0	12	1.05	0.95
	108	1	171.0	35.0	0.0	0.0	1	1.01024	-13.74967	138.0	12	1.05	0.95
	109	1	175.0	36.0	0.0	0.0	1	1.02610	-8.81524	138.0	13	1.05	0.95
	110	1	195.0	40.0	0.0	0.0	1	1.05000	-10.62063	138.0	13	1.05	0.95
	111	1	0.0	0.0	0.0	0.0	1	1.02764	-3.91674	230.0	13	1.05	0.95
	112	1	0.0	0.0	0.0	0.0	1	1.02024	-2.42424	230.0	13	1.05	0.95
	113	3	265.0	54.0	0.0	0.0	1	1.0347	0.00000	230.0	14	1.05	0.95
	114	2	194.0	39.0	0.0	0.0	1	1.04401	-1.73056	230.0	16	1.05	0.95
	115	2	317.0	64.0	0.0	0.0	1	1.04335	7.95970	230.0	16	1.05	0.95
	116	2	100.0	20.0	0.0	0.0	1	1.04565	7.56929	230.0	16	1.05	0.95
	117	1	0.0	0.0	0.0	0.0	1	1.04783	11.43417	230.0	17	1.05	0.95
	118	2	333.0	68.0	0.0	0.0	1	1.05000	12.52457	230.0	17	1.05	0.95
	119	1	181.0	37.0	0.0	0.0	1	1.03962	6.65777	230.0	15	1.05	0.95
	120	1	128.0	26.0	0.0	0.0	1	1.04399	7.74060	230.0	15	1.05	0.95
	121	2	0.0	0.0	0.0	0.0	1	1.05000	13.08653	230.0	17	1.05	0.95
	122	2	0.0	0.0	0.0	0.0	1	1.05000	18.94978	230.0	17	1.05	0.95
	123	2	0.0	0.0	0.0	0.0	1	1.05000	9.05617	230.0	15	1.05	0.95
	124	1	0.0	0.0	0.0	0.0	1	1.01155	2.38339	230.0	16	1.05	0.95
	201	2	108.0	22.0	0.0	0.0	2	1.04841	-10.68973	138.0	21	1.05	0.95
	202	2	97.0	20.0	0.0	0.0	2	1.04844	-10.75906	138.0	22	1.05	0.95
	203	1	180.0	37.0	0.0	0.0	2	1.01886	-10.47453	138.0	21	1.05	0.95
	204	1	74.0	15.0	0.0	0.0	2	1.01890	-13.48479	138.0	21	1.05	0.95
	205	1	71.0	14.0	0.0	0.0	2	1.03603	-13.61187	138.0	21	1.05	0.95
	206	1	136.0	28.0	0.0	-100.0	2	1.03259	-16.15672	138.0	22	1.05	0.95
	207	2	125.0	25.0	0.0	0.0	2	1.03973	-13.46606	138.0	22	1.05	0.95
	208	1	171.0	35.0	0.0	0.0	2	1.01203	-16.22359	138.0	22	1.05	0.95
	209	1	175.0	36.0	0.0	0.0	2	1.02781	-11.72409	138.0	23	1.05	0.95
	210	1	195.0	40.0	0.0	0.0	2	1.05000	-13.47986	138.0	23	1.05	0.95
	211	1	0.0	0.0	0.0	0.0	2	1.02735	-6.93336	230.0	23	1.05	0.95
	212	1	0.0	0.0	0.0	0.0	2	1.01921	-5.25334	230.0	23	1.05	0.95
	213	2	265.0	54.0	0.0	0.0	2	1.03752	-3.21510	230.0	24	1.05	0.95
	214	2	194.0	39.0	0.0	0.0	2	1.04335	-4.68519	230.0	26	1.05	0.95
	215	2	317.0	64.0	0.0	0.0	2	1.04327	4.63351	230.0	26	1.05	0.95
	216	2	100.0	20.0	0.0	0.0	2	1.04556	4.70009	230.0	26	1.05	0.95
	217	1	0.0	0.0	0.0	0.0	2	1.04847	8.81839	230.0	27	1.05	0.95
	218	2	333.0	68.0	0.0	0.0	2	1.05000	9.99473	230.0	27	1.05	0.95
	219	1	181.0	37.0	0.0	0.0	2	1.03946	4.21233	230.0	25	1.05	0.95
	220	1	128.0	26.0	0.0	0.0	2	1.04380	5.66449	230.0	25	1.05	0.95
	221	2	0.0	0.0	0.0	0.0	2	1.05000	10.63209	230.0	27	1.05	0.95
	222	2	0.0	0.0	0.0	0.0	2	1.05000	16.43203	230.0	27	1.05	0.95
	223	2	0.0	0.0	0.0	0.0	2	1.05000	7.18151	230.0	25	1.05	0.95
	224	1	0.0	0.0	0.0	0.0	2	1.01456	-0.96005	230.0	26	1.05	0.95
	301	2	108.0	22.0	0.0	0.0	3	1.04860	-9.34821	138.0	31	1.05	0.95
	302	2	97.0	20.0	0.0	0.0	3	1.04864	-9.43100	138.0	32	1.05	0.95
	303	1	180.0	37.0	0.0	0.0	3	1.01045	-8.57689	138.0	31	1.05	0.95
	304	1	74.0	15.0	0.0	0.0	3	1.01785	-12.18784	138.0	31	1.05	0.95
	305	1	71.0	14.0	0.0	0.0	3	1.03609	-12.35005	138.0	31	1.05	0.95
	306	1	136.0	28.0	0.0	-100.0	3	1.03260	-14.94205	138.0	32	1.05	0.95
	307	2	125.0	25.0	0.0	0.0	3	1.03804	-12.54795	138.0	32	1.05	0.95
	308	1	171.0	35.0	0.0	0.0	3	1.01056	-15.18287	138.0	32	1.05	0.95
	309	1	175.0	36.0	0.0	0.0	3	1.02579	-10.44617	138.0	33	1.05	0.95
	310	1	195.0	40.0	0.0	0.0	3	1.05000	-12.30117	138.0	33	1.05	0.95
	311	1	0.0	0.0	0.0	0.0	3	1.02830	-5.74069	230.0	33	1.05	0.95
	312	1	0.0	0.0	0.0	0.0	3	1.01900	-4.14604	230.0	33	1.05	0.95
	313	2	265.0	54.0	0.0	0.0	3	1.03802	-2.41513	230.0	34	1.05	0.95
	314	2	194.0	39.0	0.0	0.0	3	1.04631	-3.20793	230.0	36	1.05	0.95
	315	2	317.0	64.0	0.0	0.0	3	1.04300	7.05088	230.0	36	1.05	0.95
	316	2	100.0	20.0	0.0	0.0	3	1.04558	6.59875	230.0	36	1.05	0.95
	317	1	0.0	0.0	0.0	0.0	3	1.04785	10.34418	230.0	37	1.05	0.95
	318	2	333.0	68.0	0.0	0.0	3	1.05000	11.34262	230.0	37	1.05	0.95
	319	1	181.0	37.0	0.0	0.0	3	1.03953	5.91539	230.0	35	1.05	0.95
	320	1	128.0	26.0	0.0	0.0	3	1.04389	7.19709	230.0	35	1.05	0.95
	321	2	0.0	0.0	0.0	0.0	3	1.05000	12.34122	230.0	37	1.05	0.95
	322	2	0.0	0.0	0.0	0.0	3	1.05000	18.06914	230.0	37	1.05	0.95
	323	2	0.0	0.0	0.0	0.0	3	1.05000	8.62112	230.0	35	1.05	0.95
	324	1	0.0	0.0	0.0	0.0	3	1.01046	1.30606	230.0	36	1.05	0.95
	325	1	0.0	0.0	0.0	0.0	3	1.04986	8.99332	230.0	35	1.05	0.95
];

%% generator data
%	bus	Pg	Qg	Qmax	Qmin	Vg	mBase	status	Pmax	Pmin	Pc1	Pc2	Qc1min	Qc1max	Qc2min	Qc2max	ramp_agc	ramp_10	ramp_30	ramp_q	apf
mpc.gen = [
	101	8.0	4.96	10	0	1.04680	100.0	1	20.0	8	0.0	0.0	0.0	0.0	0.0	0.0	3.0	3.0	3.0	3.0	0.0
	101	8.0	4.96	10	0	1.04680	100.0	1	20.0	8	0.0	0.0	0.0	0.0	0.0	0.0	3.0	3.0	3.0	3.0	0.0
	101	76.0	0.14	30	-25	1.04680	100.0	1	76.0	30	0.0	0.0	0.0	0.0	0.0	0.0	2.0	2.0	2.0	2.0	0.0
	101	76.0	0.14	30	-25	1.04680	100.0	1	76.0	30	0.0	0.0	0.0	0.0	0.0	0.0	2.0	2.0	2.0	2.0	0.0
	102	8.0	4.88	10	0	1.04670	100.0	1	20.0	8	0.0	0.0	0.0	0.0	0.0	0.0	3.0	3.0	3.0	3.0	0.0
	102	8.0	4.88	10	0	1.04670	100.0	1	20.0	8	0.0	0.0	0.0	0.0	0.0	0.0	3.0	3.0	3.0	3.0	0.0
	102	76.0	-2.31	30	-25	1.04670	100.0	1	76.0	30	0.0	0.0	0.0	0.0	0.0	0.0	2.0	2.0	2.0	2.0	0.0
	102	76.0	-2.31	30	-25	1.04670	100.0	1	76.0	30	0.0	0.0	0.0	0.0	0.0	0.0	2.0	2.0	2.0	2.0	0.0
	107	355.0	49.51	150	-25	1.05000	100.0	1	355.0	170	0.0	0.0	0.0	0.0	0.0	0.0	4.14	4.14	4.14	4.14	0.0
	113	55.0	19.0	19	-15	1.03470	100.0	1	55.0	22	0.0	0.0	0.0	0.0	0.0	0.0	3.7	3.7	3.7	3.7	0.0
	113	55.0	19.0	19	-15	1.03470	100.0	1	55.0	22	0.0	0.0	0.0	0.0	0.0	0.0	3.7	3.7	3.7	3.7	0.0
	113	55.0	19.0	19	-15	1.03470	100.0	1	55.0	22	0.0	0.0	0.0	0.0	0.0	0.0	3.7	3.7	3.7	3.7	0.0
	113	55.0	19.0	19	-15	1.03470	100.0	1	55.0	22	0.0	0.0	0.0	0.0	0.0	0.0	3.7	3.7	3.7	3.7	0.0
	115	5.0	6.0	6	0	1.04280	100.0	1	12.0	5	0.0	0.0	0.0	0.0	0.0	0.0	1.0	1.0	1.0	1.0	0.0
	115	5.0	6.0	6	0	1.04280	100.0	1	12.0	5	0.0	0.0	0.0	0.0	0.0	0.0	1.0	1.0	1.0	1.0	0.0
	115	155.0	80.0	80	-50	1.04280	100.0	1	155.0	62	0.0	0.0	0.0	0.0	0.0	0.0	3.0	3.0	3.0	3.0	0.0
	116	155.0	80.0	80	-50	1.04610	100.0	1	155.0	62	0.0	0.0	0.0	0.0	0.0	0.0	3.0	3.0	3.0	3.0	0.0
	118	355.0	68.43	150	-25	1.05000	100.0	1	355.0	170	0.0	0.0	0.0	0.0	0.0	0.0	4.14	4.14	4.14	4.14	0.0
	123	155.0	-5.19	80	-50	1.05000	100.0	1	155.0	62	0.0	0.0	0.0	0.0	0.0	0.0	3.0	3.0	3.0	3.0	0.0
	123	350.0	28.41	150	-25	1.05000	100.0	1	350.0	140	0.0	0.0	0.0	0.0	0.0	0.0	4.0	4.0	4.0	4.0	0.0
	123	55.0	0.62	19	-15	1.05000	100.0	1	55.0	22	0.0	0.0	0.0	0.0	0.0	0.0	3.7	3.7	3.7	3.7	0.0
	123	55.0	0.62	19	-15	1.05000	100.0	1	55.0	22	0.0	0.0	0.0	0.0	0.0	0.0	3.7	3.7	3.7	3.7	0.0
	123	55.0	0.62	19	-15	1.05000	100.0	1	55.0	22	0.0	0.0	0.0	0.0	0.0	0.0	3.7	3.7	3.7	3.7	0.0
	201	8.0	5.29	10	0	1.05000	100.0	1	20.0	8	0.0	0.0	0.0	0.0	0.0	0.0	3.0	3.0	3.0	3.0	0.0
	201	8.0	5.29	10	0	1.05000	100.0	1	20.0	8	0.0	0.0	0.0	0.0	0.0	0.0	3.0	3.0	3.0	3.0	0.0
	201	76.0	6.99	30	-25	1.05000	100.0	1	76.0	30	0.0	0.0	0.0	0.0	0.0	0.0	2.0	2.0	2.0	2.0	0.0
	202	8.0	5.13	10	0	1.05000	100.0	1	20.0	8	0.0	0.0	0.0	0.0	0.0	0.0	3.0	3.0	3.0	3.0	0.0
	202	8.0	5.13	10	0	1.05000	100.0	1	20.0	8	0.0	0.0	0.0	0.0	0.0	0.0	3.0	3.0	3.0	3.0	0.0
	202	76.0	2.01	30	-25	1.05000	100.0	1	76.0	30	0.0	0.0	0.0	0.0	0.0	0.0	2.0	2.0	2.0	2.0	0.0
	202	76.0	2.01	30	-25	1.05000	100.0	1	76.0	30	0.0	0.0	0.0	0.0	0.0	0.0	2.0	2.0	2.0	2.0	0.0
	207	55.0	19.0	19	-15	0.96990	100.0	1	55.0	22	0.0	0.0	0.0	0.0	0.0	0.0	3.7	3.7	3.7	3.7	0.0
	207	55.0	19.0	19	-15	0.96990	100.0	1	55.0	22	0.0	0.0	0.0	0.0	0.0	0.0	3.7	3.7	3.7	3.7	0.0
	213	355.0	135.8	150	-25	1.05000	100.0	1	355.0	170	0.0	0.0	0.0	0.0	0.0	0.0	4.14	4.14	4.14	4.14	0.0
	213	55.0	9.23	19	-15	1.05000	100.0	1	55.0	22	0.0	0.0	0.0	0.0	0.0	0.0	3.7	3.7	3.7	3.7	0.0
	213	55.0	9.23	19	-15	1.05000	100.0	1	55.0	22	0.0	0.0	0.0	0.0	0.0	0.0	3.7	3.7	3.7	3.7	0.0
	215	55.0	19.0	19	-15	1.04370	100.0	1	55.0	22	0.0	0.0	0.0	0.0	0.0	0.0	3.7	3.7	3.7	3.7	0.0
	215	55.0	19.0	19	-15	1.04370	100.0	1	55.0	22	0.0	0.0	0.0	0.0	0.0	0.0	3.7	3.7	3.7	3.7	0.0
	216	155.0	80.0	80	-50	1.04730	100.0	1	155.0	62	0.0	0.0	0.0	0.0	0.0	0.0	3.0	3.0	3.0	3.0	0.0
	218	355.0	60.3	150	-25	1.05000	100.0	1	355.0	170	0.0	0.0	0.0	0.0	0.0	0.0	4.14	4.14	4.14	4.14	0.0
	221	296.97	-7.52	150	-25	1.05000	100.0	1	355.0	170	0.0	0.0	0.0	0.0	0.0	0.0	4.14	4.14	4.14	4.14	0.0
	223	155.0	-10.31	80	-50	1.05000	100.0	1	155.0	62	0.0	0.0	0.0	0.0	0.0	0.0	3.0	3.0	3.0	3.0	0.0
	223	155.0	-10.31	80	-50	1.05000	100.0	1	155.0	62	0.0	0.0	0.0	0.0	0.0	0.0	3.0	3.0	3.0	3.0	0.0
	223	350.0	20.59	150	-25	1.05000	100.0	1	350.0	140	0.0	0.0	0.0	0.0	0.0	0.0	4.0	4.0	4.0	4.0	0.0
	223	22.0	0.24	19	-15	1.05000	100.0	1	55.0	22	0.0	0.0	0.0	0.0	0.0	0.0	3.7	3.7	3.7	3.7	0.0
	223	22.0	0.24	19	-15	1.05000	100.0	1	55.0	22	0.0	0.0	0.0	0.0	0.0	0.0	3.7	3.7	3.7	3.7	0.0
	223	22.0	0.24	19	-15	1.05000	100.0	1	55.0	22	0.0	0.0	0.0	0.0	0.0	0.0	3.7	3.7	3.7	3.7	0.0
	301	8.0	7.95	10	0	1.05000	100.0	1	20.0	8	0.0	0.0	0.0	0.0	0.0	0.0	3.0	3.0	3.0	3.0	0.0
	301	8.0	7.95	10	0	1.05000	100.0	1	20.0	8	0.0	0.0	0.0	0.0	0.0	0.0	3.0	3.0	3.0	3.0	0.0
	301	44.0	16.53	19	-15	1.05000	100.0	1	55.0	22	0.0	0.0	0.0	0.0	0.0	0.0	3.7	3.7	3.7	3.7	0.0
	301	44.0	16.53	19	-15	1.05000	100.0	1	55.0	22	0.0	0.0	0.0	0.0	0.0	0.0	3.7	3.7	3.7	3.7	0.0
	302	8.0	6.16	10	0	1.05000	100.0	1	20.0	8	0.0	0.0	0.0	0.0	0.0	0.0	3.0	3.0	3.0	3.0	0.0
	302	8.0	6.16	10	0	1.05000	100.0	1	20.0	8	0.0	0.0	0.0	0.0	0.0	0.0	3.0	3.0	3.0	3.0	0.0
	302	55.0	10.99	19	-15	1.05000	100.0	1	55.0	22	0.0	0.0	0.0	0.0	0.0	0.0	3.7	3.7	3.7	3.7	0.0
	302	55.0	10.99	19	-15	1.05000	100.0	1	55.0	22	0.0	0.0	0.0	0.0	0.0	0.0	3.7	3.7	3.7	3.7	0.0
	307	55.0	19.0	19	-15	0.95680	100.0	1	55.0	22	0.0	0.0	0.0	0.0	0.0	0.0	3.7	3.7	3.7	3.7	0.0
	307	55.0	19.0	19	-15	0.95680	100.0	1	55.0	22	0.0	0.0	0.0	0.0	0.0	0.0	3.7	3.7	3.7	3.7	0.0
	313	355.0	150.0	150	-25	1.03500	100.0	1	355.0	170	0.0	0.0	0.0	0.0	0.0	0.0	4.14	4.14	4.14	4.14	0.0
	315	5.0	6.0	6	0	1.04220	100.0	1	12.0	5	0.0	0.0	0.0	0.0	0.0	0.0	1.0	1.0	1.0	1.0	0.0
	315	5.0	6.0	6	0	1.04220	100.0	1	12.0	5	0.0	0.0	0.0	0.0	0.0	0.0	1.0	1.0	1.0	1.0	0.0
	315	5.0	6.0	6	0	1.04220	100.0	1	12.0	5	0.0	0.0	0.0	0.0	0.0	0.0	1.0	1.0	1.0	1.0	0.0
	315	5.0	6.0	6	0	1.04220	100.0	1	12.0	5	0.0	0.0	0.0	0.0	0.0	0.0	1.0	1.0	1.0	1.0	0.0
	315	5.0	6.0	6	0	1.04220	100.0	1	12.0	5	0.0	0.0	0.0	0.0	0.0	0.0	1.0	1.0	1.0	1.0	0.0
	315	55.0	19.0	19	-15	1.04220	100.0	1	55.0	22	0.0	0.0	0.0	0.0	0.0	0.0	3.7	3.7	3.7	3.7	0.0
	315	55.0	19.0	19	-15	1.04220	100.0	1	55.0	22	0.0	0.0	0.0	0.0	0.0	0.0	3.7	3.7	3.7	3.7	0.0
	315	55.0	60.0	60	0	1.04220	100.0	1	55.0	22	0.0	0.0	0.0	0.0	0.0	0.0	3.7	3.7	3.7	3.7	0.0
	316	155.0	80.0	80	-50	1.04490	100.0	1	155.0	62	0.0	0.0	0.0	0.0	0.0	0.0	3.0	3.0	3.0	3.0	0.0
	318	355.0	63.12	150	-25	1.05000	100.0	1	355.0	170	0.0	0.0	0.0	0.0	0.0	0.0	4.14	4.14	4.14	4.14	0.0
	321	355.0	-3.34	150	-25	1.05000	100.0	1	355.0	170	0.0	0.0	0.0	0.0	0.0	0.0	4.14	4.14	4.14	4.14	0.0
	322	55.0	-9.73	19	-15	1.05000	100.0	1	55.0	22	0.0	0.0	0.0	0.0	0.0	0.0	3.7	3.7	3.7	3.7	0.0
	322	55.0	-9.73	19	-15	1.05000	100.0	1	55.0	22	0.0	0.0	0.0	0.0	0.0	0.0	3.7	3.7	3.7	3.7	0.0
	323	355.0	37.41	150	-25	1.05000	100.0	1	355.0	170	0.0	0.0	0.0	0.0	0.0	0.0	4.14	4.14	4.14	4.14	0.0
	323	355.0	37.41	150	-25	1.05000	100.0	1	355.0	170	0.0	0.0	0.0	0.0	0.0	0.0	4.14	4.14	4.14	4.14	0.0
	114	0.0	103.32	200	-50	1.04410	100.0	1	0.0	0	0.0	0.0	0.0	0.0	0.0	0.0	0.0	0.0	0.0	0.0	0.0
	121	400.0	-21.87	200	-50	1.05000	100.0	1	400.0	396	0.0	0.0	0.0	0.0	0.0	0.0	20.0	20.0	20.0	20.0	0.0
	122	50.0	-6.79	16	-10	1.05000	100.0	1	50.0	0	0.0	0.0	0.0	0.0	0.0	0.0	50.0	50.0	50.0	50.0	0.0
	122	50.0	-6.79	16	-10	1.05000	100.0	1	50.0	0	0.0	0.0	0.0	0.0	0.0	0.0	50.0	50.0	50.0	50.0	0.0
	122	50.0	-6.79	16	-10	1.05000	100.0	1	50.0	0	0.0	0.0	0.0	0.0	0.0	0.0	50.0	50.0	50.0	50.0	0.0
	122	50.0	-6.79	16	-10	1.05000	100.0	1	50.0	0	0.0	0.0	0.0	0.0	0.0	0.0	50.0	50.0	50.0	50.0	0.0
	122	50.0	-6.79	16	-10	1.05000	100.0	1	50.0	0	0.0	0.0	0.0	0.0	0.0	0.0	50.0	50.0	50.0	50.0	0.0
	122	50.0	-6.79	16	-10	1.05000	100.0	1	50.0	0	0.0	0.0	0.0	0.0	0.0	0.0	50.0	50.0	50.0	50.0	0.0
	201	50.0	4.15	16	-10	1.05000	100.0	1	50.0	0	0.0	0.0	0.0	0.0	0.0	0.0	50.0	50.0	50.0	50.0	0.0
	214	0.0	125.28	200	-50	1.05000	100.0	1	0.0	0	0.0	0.0	0.0	0.0	0.0	0.0	0.0	0.0	0.0	0.0	0.0
	215	50.0	16.0	16	-10	1.04370	100.0	1	50.0	0	0.0	0.0	0.0	0.0	0.0	0.0	50.0	50.0	50.0	50.0	0.0
	215	50.0	16.0	16	-10	1.04370	100.0	1	50.0	0	0.0	0.0	0.0	0.0	0.0	0.0	50.0	50.0	50.0	50.0	0.0
	215	50.0	16.0	16	-10	1.04370	100.0	1	50.0	0	0.0	0.0	0.0	0.0	0.0	0.0	50.0	50.0	50.0	50.0	0.0
	222	50.0	-6.97	16	-10	1.05000	100.0	1	50.0	0	0.0	0.0	0.0	0.0	0.0	0.0	50.0	50.0	50.0	50.0	0.0
	222	50.0	-6.97	16	-10	1.05000	100.0	1	50.0	0	0.0	0.0	0.0	0.0	0.0	0.0	50.0	50.0	50.0	50.0	0.0
	222	50.0	-6.97	16	-10	1.05000	100.0	1	50.0	0	0.0	0.0	0.0	0.0	0.0	0.0	50.0	50.0	50.0	50.0	0.0
	222	50.0	-6.97	16	-10	1.05000	100.0	1	50.0	0	0.0	0.0	0.0	0.0	0.0	0.0	50.0	50.0	50.0	50.0	0.0
	222	50.0	-6.97	16	-10	1.05000	100.0	1	50.0	0	0.0	0.0	0.0	0.0	0.0	0.0	50.0	50.0	50.0	50.0	0.0
	222	50.0	-6.97	16	-10	1.05000	100.0	1	50.0	0	0.0	0.0	0.0	0.0	0.0	0.0	50.0	50.0	50.0	50.0	0.0
	314	0.0	166.63	200	-50	1.05000	100.0	1	0.0	0	0.0	0.0	0.0	0.0	0.0	0.0	0.0	0.0	0.0	0.0	0.0
	322	50.0	-5.13	16	-10	1.05000	100.0	1	50.0	0	0.0	0.0	0.0	0.0	0.0	0.0	50.0	50.0	50.0	50.0	0.0
	322	50.0	-5.13	16	-10	1.05000	100.0	1	50.0	0	0.0	0.0	0.0	0.0	0.0	0.0	50.0	50.0	50.0	50.0	0.0
	322	50.0	-5.13	16	-10	1.05000	100.0	1	50.0	0	0.0	0.0	0.0	0.0	0.0	0.0	50.0	50.0	50.0	50.0	0.0
	322	50.0	-5.13	16	-10	1.05000	100.0	1	50.0	0	0.0	0.0	0.0	0.0	0.0	0.0	50.0	50.0	50.0	50.0	0.0
	320	0.0	0.0	0	0	1.00000	100.0	0	51.6	0	0.0	0.0	0.0	0.0	0.0	0.0	51.6	51.6	51.6	51.6	0.0
	314	0.0	0.0	0	0	1.00000	100.0	0	51.6	0	0.0	0.0	0.0	0.0	0.0	0.0	51.6	51.6	51.6	51.6	0.0
	314	0.0	0.0	0	0	1.00000	100.0	0	51.6	0	0.0	0.0	0.0	0.0	0.0	0.0	51.6	51.6	51.6	51.6	0.0
	313	0.0	0.0	0	0	1.00000	100.0	0	95.1	0	0.0	0.0	0.0	0.0	0.0	0.0	95.1	95.1	95.1	95.1	0.0
	314	0.0	0.0	0	0	1.00000	100.0	0	92.7	0	0.0	0.0	0.0	0.0	0.0	0.0	92.7	92.7	92.7	92.7	0.0
	314	0.0	0.0	0	0	1.00000	100.0	0	51.6	0	0.0	0.0	0.0	0.0	0.0	0.0	51.6	51.6	51.6	51.6	0.0
	313	0.0	0.0	0	0	1.00000	100.0	0	93.3	0	0.0	0.0	0.0	0.0	0.0	0.0	93.3	93.3	93.3	93.3	0.0
	310	0.0	0.0	0	0	1.00000	100.0	0	51.7	0	0.0	0.0	0.0	0.0	0.0	0.0	51.7	51.7	51.7	51.7	0.0
	324	0.0	0.0	0	0	1.00000	100.0	0	49.7	0	0.0	0.0	0.0	0.0	0.0	0.0	49.7	49.7	49.7	49.7	0.0
	312	0.0	0.0	0	0	1.00000	100.0	0	94.1	0	0.0	0.0	0.0	0.0	0.0	0.0	94.1	94.1	94.1	94.1	0.0
	310	0.0	0.0	0	0	1.00000	100.0	0	51.6	0	0.0	0.0	0.0	0.0	0.0	0.0	51.6	51.6	51.6	51.6	0.0
	324	0.0	0.0	0	0	1.00000	100.0	0	51.6	0	0.0	0.0	0.0	0.0	0.0	0.0	51.6	51.6	51.6	51.6	0.0
	324	0.0	0.0	0	0	1.00000	100.0	0	51.0	0	0.0	0.0	0.0	0.0	0.0	0.0	51.0	51.0	51.0	51.0	0.0
	113	0.0	0.0	0	0	1.00000	100.0	0	93.6	0	0.0	0.0	0.0	0.0	0.0	0.0	93.6	93.6	93.6	93.6	0.0
	319	0.0	0.0	0	0	1.00000	100.0	0	188.2	0	0.0	0.0	0.0	0.0	0.0	0.0	188.2	188.2	188.2	188.2	0.0
	215	0.0	0.0	0	0	1.00000	100.0	0	125.1	0	0.0	0.0	0.0	0.0	0.0	0.0	125.1	125.1	125.1	125.1	0.0
	102	0.0	0.0	0	0	1.00000	100.0	0	25.6	0	0.0	0.0	0.0	0.0	0.0	0.0	25.6	25.6	25.6	25.6	0.0
	101	0.0	0.0	0	0	1.00000	100.0	0	25.9	0	0.0	0.0	0.0	0.0	0.0	0.0	25.9	25.9	25.9	25.9	0.0
	102	0.0	0.0	0	0	1.00000	100.0	0	25.3	0	0.0	0.0	0.0	0.0	0.0	0.0	25.3	25.3	25.3	25.3	0.0
	104	0.0	0.0	0	0	1.00000	100.0	0	26.8	0	0.0	0.0	0.0	0.0	0.0	0.0	26.8	26.8	26.8	26.8	0.0
	212	0.0	0.0	0	0	1.00000	100.0	0	200.0	30	0.0	0.0	0.0	0.0	0.0	0.0	20.0	20.0	20.0	20.0	0.0
	101	0.0	0.0	0	0	1.00000	100.0	0	26.7	0	0.0	0.0	0.0	0.0	0.0	0.0	26.7	26.7	26.7	26.7	0.0
	101	0.0	0.0	0	0	1.00000	100.0	0	26.2	0	0.0	0.0	0.0	0.0	0.0	0.0	26.2	26.2	26.2	26.2	0.0
	101	0.0	0.0	0	0	1.00000	100.0	0	25.8	0	0.0	0.0	0.0	0.0	0.0	0.0	25.8	25.8	25.8	25.8	0.0
	103	0.0	0.0	0	0	1.00000	100.0	0	61.5	0	0.0	0.0	0.0	0.0	0.0	0.0	61.5	61.5	61.5	61.5	0.0
	119	0.0	0.0	0	0	1.00000	100.0	0	66.6	0	0.0	0.0	0.0	0.0	0.0	0.0	66.6	66.6	66.6	66.6	0.0
	308	0.0	0.0	0	0	1.00000	100.0	0	100.9	0	0.0	0.0	0.0	0.0	0.0	0.0	100.9	100.9	100.9	100.9	0.0
	313	0.0	0.0	0	0	1.00000	100.0	0	101.7	0	0.0	0.0	0.0	0.0	0.0	0.0	101.7	101.7	101.7	101.7	0.0
	313	0.0	0.0	0	0	1.00000	100.0	0	63.1	0	0.0	0.0	0.0	0.0	0.0	0.0	63.1	63.1	63.1	63.1	0.0
	313	0.0	0.0	0	0	1.00000	100.0	0	65.4	0	0.0	0.0	0.0	0.0	0.0	0.0	65.4	65.4	65.4	65.4	0.0
	313	0.0	0.0	0	0	1.00000	100.0	0	67.0	0	0.0	0.0	0.0	0.0	0.0	0.0	67.0	67.0	67.0	67.0	0.0
	313	0.0	0.0	0	0	1.00000	100.0	0	64.8	0	0.0	0.0	0.0	0.0	0.0	0.0	64.8	64.8	64.8	64.8	0.0
	313	0.0	0.0	0	0	1.00000	100.0	0	63.8	0	0.0	0.0	0.0	0.0	0.0	0.0	63.8	63.8	63.8	63.8	0.0
	313	0.0	0.0	0	0	1.00000	100.0	0	64.1	0	0.0	0.0	0.0	0.0	0.0	0.0	64.1	64.1	64.1	64.1	0.0
	313	0.0	0.0	0	0	1.00000	100.0	0	66.6	0	0.0	0.0	0.0	0.0	0.0	0.0	66.6	66.6	66.6	66.6	0.0
	313	0.0	0.0	0	0	1.00000	100.0	0	62.4	0	0.0	0.0	0.0	0.0	0.0	0.0	62.4	62.4	62.4	62.4	0.0
	313	0.0	0.0	0	0	1.00000	100.0	0	66.9	0	0.0	0.0	0.0	0.0	0.0	0.0	66.9	66.9	66.9	66.9	0.0
	313	0.0	0.0	0	0	1.00000	100.0	0	65.2	0	0.0	0.0	0.0	0.0	0.0	0.0	65.2	65.2	65.2	65.2	0.0
	313	0.0	0.0	0	0	1.00000	100.0	0	27.8	0	0.0	0.0	0.0	0.0	0.0	0.0	27.8	27.8	27.8	27.8	0.0
	320	0.0	0.0	0	0	1.00000	100.0	0	27.3	0	0.0	0.0	0.0	0.0	0.0	0.0	27.3	27.3	27.3	27.3	0.0
	320	0.0	0.0	0	0	1.00000	100.0	0	27.0	0	0.0	0.0	0.0	0.0	0.0	0.0	27.0	27.0	27.0	27.0	0.0
	320	0.0	0.0	0	0	1.00000	100.0	0	28.3	0	0.0	0.0	0.0	0.0	0.0	0.0	28.3	28.3	28.3	28.3	0.0
	313	0.0	0.0	0	0	1.00000	100.0	0	27.2	0	0.0	0.0	0.0	0.0	0.0	0.0	27.2	27.2	27.2	27.2	0.0
	320	0.0	0.0	0	0	1.00000	100.0	0	27.0	0	0.0	0.0	0.0	0.0	0.0	0.0	27.0	27.0	27.0	27.0	0.0
	320	0.0	0.0	0	0	1.00000	100.0	0	28.2	0	0.0	0.0	0.0	0.0	0.0	0.0	28.2	28.2	28.2	28.2	0.0
	118	0.0	0.0	0	0	1.00000	100.0	0	9.3	0	0.0	0.0	0.0	0.0	0.0	0.0	9.3	9.3	9.3	9.3	0.0
	118	0.0	0.0	0	0	1.00000	100.0	0	9.7	0	0.0	0.0	0.0	0.0	0.0	0.0	9.7	9.7	9.7	9.7	0.0
	118	0.0	0.0	0	0	1.00000	100.0	0	9.4	0	0.0	0.0	0.0	0.0	0.0	0.0	9.4	9.4	9.4	9.4	0.0
	118	0.0	0.0	0	0	1.00000	100.0	0	9.1	0	0.0	0.0	0.0	0.0	0.0	0.0	9.1	9.1	9.1	9.1	0.0
	118	0.0	0.0	0	0	1.00000	100.0	0	9.1	0	0.0	0.0	0.0	0.0	0.0	0.0	9.1	9.1	9.1	9.1	0.0
	118	0.0	0.0	0	0	1.00000	100.0	0	9.7	0	0.0	0.0	0.0	0.0	0.0	0.0	9.7	9.7	9.7	9.7	0.0
	320	0.0	0.0	0	0	1.00000	100.0	0	9.4	0	0.0	0.0	0.0	0.0	0.0	0.0	9.4	9.4	9.4	9.4	0.0
	118	0.0	0.0	0	0	1.00000	100.0	0	11.8	0	0.0	0.0	0.0	0.0	0.0	0.0	11.8	11.8	11.8	11.8	0.0
	118	0.0	0.0	0	0	1.00000	100.0	0	11.2	0	0.0	0.0	0.0	0.0	0.0	0.0	11.2	11.2	11.2	11.2	0.0
	118	0.0	0.0	0	0	1.00000	100.0	0	10.3	0	0.0	0.0	0.0	0.0	0.0	0.0	10.3	10.3	10.3	10.3	0.0
	118	0.0	0.0	0	0	1.00000	100.0	0	4.5	0	0.0	0.0	0.0	0.0	0.0	0.0	4.5	4.5	4.5	4.5	0.0
	213	0.0	0.0	0	0	1.00000	100.0	0	13.2	0	0.0	0.0	0.0	0.0	0.0	0.0	13.2	13.2	13.2	13.2	0.0
	309	0.0	0.0	0	0	1.00000	100.0	0	148.3	0	0.0	0.0	0.0	0.0	0.0	0.0	148.3	148.3	148.3	148.3	0.0
	317	0.0	0.0	0	0	1.00000	100.0	0	799.1	0	0.0	0.0	0.0	0.0	0.0	0.0	799.1	799.1	799.1	799.1	0.0
	303	0.0	0.0	0	0	1.00000	100.0	0	847.0	0	0.0	0.0	0.0	0.0	0.0	0.0	847.0	847.0	847.0	847.0	0.0
	122	0.0	0.0	0	0	1.00000	100.0	0	713.5	0	0.0	0.0	0.0	0.0	0.0	0.0	713.5	713.5	713.5	713.5	0.0
	313	0.0	0.0	0	0	1.00000	100.0	0	50.0	0	0.0	0.0	0.0	0.0	0.0	0.0	50.0	50.0	50.0	50.0	0.0
];

%% branch data
%	fbus	tbus	r	x	b	rateA	rateB	rateC	ratio	angle	status	angmin	angmax
mpc.branch = [
	101	102	0.00300	0.01400	0.46100	175	175	175	0.0	0.0	1	-180	180
	101	103	0.05500	0.21100	0.05700	175	175	175	0.0	0.0	1	-180	180
	101	105	0.02200	0.08500	0.02300	175	175	175	0.0	0.0	1	-180	180
	102	104	0.03300	0.12700	0.03400	175	175	175	0.0	0.0	1	-180	180
	102	106	0.05000	0.19200	0.05200	175	175	175	0.0	0.0	1	-180	180
	103	109	0.03100	0.11900	0.03200	175	175	175	0.0	0.0	1	-180	180
	103	124	0.00200	0.08400	0.00000	400	400	400	1.015	0.0	1	-180	180
	104	109	0.02700	0.10400	0.02800	175	175	175	0.0	0.0	1	-180	180
	105	110	0.02300	0.08800	0.02400	175	175	175	0.0	0.0	1	-180	180
	106	110	0.01400	0.06100	2.45900	175	175	175	0.0	0.0	1	-180	180
	107	108	0.01600	0.06100	0.01700	175	175	175	0.0	0.0	1	-180	180
	107	203	0.04200	0.16100	0.04400	175	175	175	0.0	0.0	1	-180	180
	108	109	0.04300	0.16500	0.04500	175	175	175	0.0	0.0	1	-180	180
	108	110	0.04300	0.16500	0.04500	175	175	175	0.0	0.0	1	-180	180
	109	111	0.00200	0.08400	0.00000	400	400	400	1.03	0.0	1	-180	180
	109	112	0.00200	0.08400	0.00000	400	400	400	1.03	0.0	1	-180	180
	110	111	0.00200	0.08400	0.00000	400	400	400	1.015	0.0	1	-180	180
	110	112	0.00200	0.08400	0.00000	400	400	400	1.015	0.0	1	-180	180
	111	113	0.00600	0.04800	0.10000	500	500	500	0.0	0.0	1	-180	180
	111	114	0.00500	0.04200	0.08800	500	500	500	0.0	0.0	1	-180	180
	112	113	0.00600	0.04800	0.10000	500	500	500	0.0	0.0	1	-180	180
	112	123	0.01200	0.09700	0.20300	500	500	500	0.0	0.0	1	-180	180
	113	123	0.01100	0.08700	0.18200	500	500	500	0.0	0.0	1	-180	180
	113	215	0.01000	0.07500	0.15800	500	500	500	0.0	0.0	1	-180	180
	114	116	0.00500	0.05900	0.08200	500	500	500	0.0	0.0	1	-180	180
	115	116	0.00200	0.01700	0.03600	500	500	500	0.0	0.0	1	-180	180
	115	121	0.00600	0.04900	0.10300	500	500	500	0.0	0.0	1	-180	180
	115	121	0.00600	0.04900	0.10300	500	500	500	0.0	0.0	1	-180	180
	115	124	0.00700	0.05200	0.10900	500	500	500	0.0	0.0	1	-180	180
	116	117	0.00300	0.02600	0.05500	500	500	500	0.0	0.0	1	-180	180
	116	119	0.00300	0.02300	0.04900	500	500	500	0.0	0.0	1	-180	180
	117	118	0.00200	0.01400	0.03000	500	500	500	0.0	0.0	1	-180	180
	117	122	0.01400	0.10500	0.22100	500	500	500	0.0	0.0	1	-180	180
	118	121	0.00300	0.02600	0.05500	500	500	500	0.0	0.0	1	-180	180
	118	121	0.00300	0.02600	0.05500	500	500	500	0.0	0.0	1	-180	180
	119	120	0.00500	0.04000	0.08300	500	500	500	0.0	0.0	1	-180	180
	119	120	0.00500	0.04000	0.08300	500	500	500	0.0	0.0	1	-180	180
	120	123	0.00300	0.02200	0.04600	500	500	500	0.0	0.0	1	-180	180
	120	123	0.00300	0.02200	0.04600	500	500	500	0.0	0.0	1	-180	180
	121	122	0.00900	0.06800	0.14200	500	500	500	0.0	0.0	1	-180	180
	123	217	0.01000	0.07400	0.15500	500	500	500	0.0	0.0	1	-180	180
	201	202	0.00300	0.01400	0.46100	175	175	175	0.0	0.0	1	-180	180
	201	203	0.05500	0.21100	0.05700	175	175	175	0.0	0.0	1	-180	180
	201	205	0.02200	0.08500	0.02300	175	175	175	0.0	0.0	1	-180	180
	202	204	0.03300	0.12700	0.03400	175	175	175	0.0	0.0	1	-180	180
	202	206	0.05000	0.19200	0.05200	175	175	175	0.0	0.0	1	-180	180
	203	209	0.03100	0.11900	0.03200	175	175	175	0.0	0.0	1	-180	180
	203	224	0.00200	0.08400	0.00000	400	400	400	1.015	0.0	1	-180	180
	204	209	0.02700	0.10400	0.02800	175	175	175	0.0	0.0	1	-180	180
	205	210	0.02300	0.08800	0.02400	175	175	175	0.0	0.0	1	-180	180
	206	210	0.01400	0.06100	2.45900	175	175	175	0.0	0.0	1	-180	180
	207	208	0.01600	0.06100	0.01700	175	175	175	0.0	0.0	1	-180	180
	208	209	0.04300	0.16500	0.04500	175	175	175	0.0	0.0	1	-180	180
	208	210	0.04300	0.16500	0.04500	175	175	175	0.0	0.0	1	-180	180
	209	211	0.00200	0.08400	0.00000	400	400	400	1.03	0.0	1	-180	180
	209	212	0.00200	0.08400	0.00000	400	400	400	1.03	0.0	1	-180	180
	210	211	0.00200	0.08400	0.00000	400	400	400	1.015	0.0	1	-180	180
	210	212	0.00200	0.08400	0.00000	400	400	400	1.015	0.0	1	-180	180
	211	213	0.00600	0.04800	0.10000	500	500	500	0.0	0.0	1	-180	180
	211	214	0.00500	0.04200	0.08800	500	500	500	0.0	0.0	1	-180	180
	212	213	0.00600	0.04800	0.10000	500	500	500	0.0	0.0	1	-180	180
	212	223	0.01200	0.09700	0.20300	500	500	500	0.0	0.0	1	-180	180
	213	223	0.01100	0.08700	0.18200	500	500	500	0.0	0.0	1	-180	180
	214	216	0.00500	0.05900	0.08200	500	500	500	0.0	0.0	1	-180	180
	215	216	0.00200	0.01700	0.03600	500	500	500	0.0	0.0	1	-180	180
	215	221	0.00600	0.04900	0.10300	500	500	500	0.0	0.0	1	-180	180
	215	221	0.00600	0.04900	0.10300	500	500	500	0.0	0.0	1	-180	180
	215	224	0.00700	0.05200	0.10900	500	500	500	0.0	0.0	1	-180	180
	216	217	0.00300	0.02600	0.05500	500	500	500	0.0	0.0	1	-180	180
	216	219	0.00300	0.02300	0.04900	500	500	500	0.0	0.0	1	-180	180
	217	218	0.00200	0.01400	0.03000	500	500	500	0.0	0.0	1	-180	180
	217	222	0.01400	0.10500	0.22100	500	500	500	0.0	0.0	1	-180	180
	218	221	0.00300	0.02600	0.05500	500	500	500	0.0	0.0	1	-180	180
	218	221	0.00300	0.02600	0.05500	500	500	500	0.0	0.0	1	-180	180
	219	220	0.00500	0.04000	0.08300	500	500	500	0.0	0.0	1	-180	180
	219	220	0.00500	0.04000	0.08300	500	500	500	0.0	0.0	1	-180	180
	220	223	0.00300	0.02200	0.04600	500	500	500	0.0	0.0	1	-180	180
	220	223	0.00300	0.02200	0.04600	500	500	500	0.0	0.0	1	-180	180
	221	222	0.00900	0.06800	0.14200	500	500	500	0.0	0.0	1	-180	180
	301	302	0.00300	0.01400	0.46100	175	175	175	0.0	0.0	1	-180	180
	301	303	0.05500	0.21100	0.05700	175	175	175	0.0	0.0	1	-180	180
	301	305	0.02200	0.08500	0.02300	175	175	175	0.0	0.0	1	-180	180
	302	304	0.03300	0.12700	0.03400	175	175	175	0.0	0.0	1	-180	180
	302	306	0.05000	0.19200	0.05200	175	175	175	0.0	0.0	1	-180	180
	303	309	0.03100	0.11900	0.03200	175	175	175	0.0	0.0	1	-180	180
	303	324	0.00200	0.08400	0.00000	400	400	400	1.015	0.0	1	-180	180
	304	309	0.02700	0.10400	0.02800	175	175	175	0.0	0.0	1	-180	180
	305	310	0.02300	0.08800	0.02400	175	175	175	0.0	0.0	1	-180	180
	306	310	0.01400	0.06100	2.45900	175	175	175	0.0	0.0	1	-180	180
	307	308	0.01600	0.06100	0.01700	175	175	175	0.0	0.0	1	-180	180
	308	309	0.04300	0.16500	0.04500	175	175	175	0.0	0.0	1	-180	180
	308	310	0.04300	0.16500	0.04500	175	175	175	0.0	0.0	1	-180	180
	309	311	0.00200	0.08400	0.00000	400	400	400	1.03	0.0	1	-180	180
	309	312	0.00200	0.08400	0.00000	400	400	400	1.03	0.0	1	-180	180
	310	311	0.00200	0.08400	0.00000	400	400	400	1.015	0.0	1	-180	180
	310	312	0.00200	0.08400	0.00000	400	400	400	1.015	0.0	1	-180	180
	311	313	0.00600	0.04800	0.10000	500	500	500	0.0	0.0	1	-180	180
	311	314	0.00500	0.04200	0.08800	500	500	500	0.0	0.0	1	-180	180
	312	313	0.00600	0.04800	0.10000	500	500	500	0.0	0.0	1	-180	180
	312	323	0.01200	0.09700	0.20300	500	500	500	0.0	0.0	1	-180	180
	313	323	0.01100	0.08700	0.18200	500	500	500	0.0	0.0	1	-180	180
	314	316	0.00500	0.05900	0.08200	500	500	500	0.0	0.0	1	-180	180
	315	316	0.00200	0.01700	0.03600	500	500	500	0.0	0.0	1	-180	180
	315	321	0.00600	0.04900	0.10300	500	500	500	0.0	0.0	1	-180	180
	315	321	0.00600	0.04900	0.10300	500	500	500	0.0	0.0	1	-180	180
	315	324	0.00700	0.05200	0.10900	500	500	500	0.0	0.0	1	-180	180
	316	317	0.00300	0.02600	0.05500	500	500	500	0.0	0.0	1	-180	180
	316	319	0.00300	0.02300	0.04900	500	500	500	0.0	0.0	1	-180	180
	317	318	0.00200	0.01400	0.03000	500	500	500	0.0	0.0	1	-180	180
	317	322	0.01400	0.10500	0.22100	500	500	500	0.0	0.0	1	-180	180
	318	321	0.00300	0.02600	0.05500	500	500	500	0.0	0.0	1	-180	180
	318	321	0.00300	0.02600	0.05500	500	500	500	0.0	0.0	1	-180	180
	319	320	0.00500	0.04000	0.08300	500	500	500	0.0	0.0	1	-180	180
	319	320	0.00500	0.04000	0.08300	500	500	500	0.0	0.0	1	-180	180
	320	323	0.00300	0.02200	0.04600	500	500	500	0.0	0.0	1	-180	180
	320	323	0.00300	0.02200	0.04600	500	500	500	0.0	0.0	1	-180	180
	321	322	0.00900	0.06800	0.14200	500	500	500	0.0	0.0	1	-180	180
	325	121	0.01200	0.09700	0.20300	500	500	500	0.0	0.0	1	-180	180
	318	223	0.01300	0.10400	0.21800	500	500	500	0.0	0.0	1	-180	180
	323	325	0.00000	0.00900	0.00000	722	722	722	1.0	0.0	1	-180	180
];

%%-----  OPF Data  -----%%
%% generator cost data
%   1   startup shutdown    n   x1  y1  ... xn  yn
%   2   startup shutdown    n   c(n-1)  ... c0
mpc.gencost = [
	1	51.74700	51.74700	4	8.00000	1085.77625	12.00000	1477.23196	16.00000	1869.51562	20.00000	2298.06357
	1	51.74700	51.74700	4	8.00000	1085.77625	12.00000	1477.23196	16.00000	1869.51562	20.00000	2298.06357
	1	11172.01435	11172.01435	4	30.00000	841.57942	45.33333	1059.17805	60.66667	1319.40176	76.00000	1596.51343
	1	11172.01435	11172.01435	4	30.00000	841.57942	45.33333	1059.17805	60.66667	1319.40176	76.00000	1596.51343
	1	51.74700	51.74700	4	8.00000	1212.03893	12.00000	1567.93410	16.00000	1946.59795	20.00000	2344.92565
	1	51.74700	51.74700	4	8.00000	1212.03893	12.00000	1567.93410	16.00000	1946.59795	20.00000	2344.92565
	1	11172.01435	11172.01435	4	30.00000	735.09774	45.33333	1018.20610	60.66667	1337.84562	76.00000	1683.09260
	1	11172.01435	11172.01435	4	30.00000	735.09774	45.33333	1018.20610	60.66667	1337.84562	76.00000	1683.09260
	1	28046.68102	28046.68102	4	170.00000	4772.49548	231.66667	6203.57553	293.33333	7855.66994	355.00000	9738.36720
	1	5665.23443	5665.23443	4	22.00000	1122.43477	33.00000	1417.43201	44.00000	1742.48912	55.00000	2075.88432
	1	5665.23443	5665.23443	4	22.00000	1122.43477	33.00000	1417.43201	44.00000	1742.48912	55.00000	2075.88432
	1	5665.23443	5665.23443	4	22.00000	1122.43477	33.00000	1417.43201	44.00000	1742.48912	55.00000	2075.88432
	1	5665.23443	5665.23443	4	22.00000	1122.43477	33.00000	1417.43201	44.00000	1742.48912	55.00000	2075.88432
	1	703.75920	703.75920	4	5.00000	897.29298	7.33333	1187.80064	9.66667	1479.58817	12.00000	1791.41904
	1	703.75920	703.75920	4	5.00000	897.29298	7.33333	1187.80064	9.66667	1479.58817	12.00000	1791.41904
	1	22784.79562	22784.79562	4	62.00000	1500.19723	93.00000	2132.59734	124.00000	2829.87580	155.00000	3668.44490
	1	22784.79562	22784.79562	4	62.00000	1735.06998	93.00000	2345.31970	124.00000	3011.01092	155.00000	3751.14842
	1	28046.68102	28046.68102	4	170.00000	4795.62444	231.66667	6187.87116	293.33333	7899.41412	355.00000	9901.24820
	1	22784.79562	22784.79562	4	62.00000	1437.41596	93.00000	2039.73610	124.00000	2751.75964	155.00000	3775.85462
	1	36749.81356	36749.81356	4	140.00000	3582.87481	210.00000	4981.72313	280.00000	6497.03117	350.00000	8137.67767
	1	5665.23443	5665.23443	4	22.00000	1088.22724	33.00000	1377.15264	44.00000	1704.98911	55.00000	2046.97895
	1	5665.23443	5665.23443	4	22.00000	1088.22724	33.00000	1377.15264	44.00000	1704.98911	55.00000	2046.97895
	1	5665.23443	5665.23443	4	22.00000	1088.22724	33.00000	1377.15264	44.00000	1704.98911	55.00000	2046.97895
	1	51.74700	51.74700	4	8.00000	1157.22851	12.00000	1487.12598	16.00000	1822.73633	20.00000	2269.08525
	1	51.74700	51.74700	4	8.00000	1157.22851	12.00000	1487.12598	16.00000	1822.73633	20.00000	2269.08525
	1	11172.01435	11172.01435	4	30.00000	823.75848	45.33333	1163.94880	60.66667	1523.42575	76.00000	1918.39660
	1	51.74700	51.74700	4	8.00000	1131.23082	12.00000	1455.62241	16.00000	1805.10095	20.00000	2196.47386
	1	51.74700	51.74700	4	8.00000	1131.23082	12.00000	1455.62241	16.00000	1805.10095	20.00000	2196.47386
	1	11172.01435	11172.01435	4	30.00000	751.26977	45.33333	1075.05834	60.66667	1401.47249	76.00000	1819.68454
	1	11172.01435	11172.01435	4	30.00000	751.26977	45.33333	1075.05834	60.66667	1401.47249	76.00000	1819.68454
	1	5665.23443	5665.23443	4	22.00000	1116.10638	33.00000	1492.56031	44.00000	1897.96238	55.00000	2366.39182
	1	5665.23443	5665.23443	4	22.00000	1116.10638	33.00000	1492.56031	44.00000	1897.96238	55.00000	2366.39182
	1	28046.68102	28046.68102	4	170.00000	5170.31357	231.66667	6688.64875	293.33333	8361.59810	355.00000	10458.83751
	1	5665.23443	5665.23443	4	22.00000	1122.43477	33.00000	1417.43201	44.00000	1742.48912	55.00000	2075.88432
	1	5665.23443	5665.23443	4	22.00000	1122.43477	33.00000	1417.43201	44.00000	1742.48912	55.00000	2075.88432
	1	5665.23443	5665.23443	4	22.00000	1216.84757	33.00000	1501.96739	44.00000	1800.72745	55.00000	2160.80453
	1	5665.23443	5665.23443	4	22.00000	1216.84757	33.00000	1501.96739	44.00000	1800.72745	55.00000	2160.80453
	1	22784.79562	22784.79562	4	62.00000	1426.14416	93.00000	2001.92316	124.00000	2679.08278	155.00000	3412.47031
	1	28046.68102	28046.68102	4	170.00000	7523.51994	231.66667	8815.08767	293.33333	10151.48151	355.00000	11987.19523
	1	28046.68102	28046.68102	4	170.00000	4551.11830	231.66667	5977.40411	293.33333	7600.73310	355.00000	9828.37578
	1	22784.79562	22784.79562	4	62.00000	1422.99854	93.00000	2013.06389	124.00000	2623.44468	155.00000	3256.43459
	1	22784.79562	22784.79562	4	62.00000	1422.99854	93.00000	2013.06389	124.00000	2623.44468	155.00000	3256.43459
	1	36749.81356	36749.81356	4	140.00000	3323.31912	210.00000	4643.59043	280.00000	6258.48853	350.00000	7981.70748
	1	5665.23443	5665.23443	4	22.00000	1692.75992	33.00000	2103.03655	44.00000	2540.25162	55.00000	2996.75119
	1	5665.23443	5665.23443	4	22.00000	1692.75992	33.00000	2103.03655	44.00000	2540.25162	55.00000	2996.75119
	1	5665.23443	5665.23443	4	22.00000	1692.75992	33.00000	2103.03655	44.00000	2540.25162	55.00000	2996.75119
	1	51.74700	51.74700	4	8.00000	1208.23035	12.00000	1557.25352	16.00000	1956.03660	20.00000	2377.50557
	1	51.74700	51.74700	4	8.00000	1208.23035	12.00000	1557.25352	16.00000	1956.03660	20.00000	2377.50557
	1	5665.23443	5665.23443	4	22.00000	1119.44162	33.00000	1432.61161	44.00000	1754.76108	55.00000	2235.93283
	1	5665.23443	5665.23443	4	22.00000	1119.44162	33.00000	1432.61161	44.00000	1754.76108	55.00000	2235.93283
	1	51.74700	51.74700	4	8.00000	1208.23035	12.00000	1557.25352	16.00000	1956.03660	20.00000	2377.50557
	1	51.74700	51.74700	4	8.00000	1208.23035	12.00000	1557.25352	16.00000	1956.03660	20.00000	2377.50557
	1	5665.23443	5665.23443	4	22.00000	1316.56254	33.00000	1688.27018	44.00000	2110.47669	55.00000	2535.46257
	1	5665.23443	5665.23443	4	22.00000	1316.56254	33.00000	1688.27018	44.00000	2110.47669	55.00000	2535.46257
	1	5665.23443	5665.23443	4	22.00000	1141.93307	33.00000	1448.77467	44.00000	1770.19723	55.00000	2160.41970
	1	5665.23443	5665.23443	4	22.00000	1141.93307	33.00000	1448.77467	44.00000	1770.19723	55.00000	2160.41970
	1	28046.68102	28046.68102	4	170.00000	5243.00459	231.66667	6213.11865	293.33333	7863.05566	355.00000	9944.47408
	1	703.75920	703.75920	4	5.00000	745.67427	7.33333	921.69342	9.66667	1155.95898	12.00000	1445.52485
	1	703.75920	703.75920	4	5.00000	745.67427	7.33333	921.69342	9.66667	1155.95898	12.00000	1445.52485
	1	703.75920	703.75920	4	5.00000	745.67427	7.33333	921.69342	9.66667	1155.95898	12.00000	1445.52485
	1	703.75920	703.75920	4	5.00000	745.67427	7.33333	921.69342	9.66667	1155.95898	12.00000	1445.52485
	1	703.75920	703.75920	4	5.00000	745.67427	7.33333	921.69342	9.66667	1155.95898	12.00000	1445.52485
	1	5665.23443	5665.23443	4	22.00000	884.43584	33.00000	1174.85782	44.00000	1470.71025	55.00000	1821.12370
	1	5665.23443	5665.23443	4	22.00000	884.43584	33.00000	1174.85782	44.00000	1470.71025	55.00000	1821.12370
	1	5665.23443	5665.23443	4	22.00000	884.43584	33.00000	1174.85782	44.00000	1470.71025	55.00000	1821.12370
	1	22784.79562	22784.79562	4	62.00000	1552.62418	93.00000	2207.24021	124.00000	2867.16447	155.00000	3712.68014
	1	28046.68102	28046.68102	4	170.00000	5254.89948	231.66667	6910.34987	293.33333	8592.40827	355.00000	10536.71149
	1	28046.68102	28046.68102	4	170.00000	4775.79962	231.66667	6177.63481	293.33333	7775.31462	355.00000	9868.71865
	1	5665.23443	5665.23443	4	22.00000	1031.69929	33.00000	1288.38408	44.00000	1579.87505	55.00000	1886.71665
	1	5665.23443	5665.23443	4	22.00000	1031.69929	33.00000	1288.38408	44.00000	1579.87505	55.00000	1886.71665
	1	28046.68102	28046.68102	4	170.00000	4877.56703	231.66667	6507.36825	293.33333	8374.48424	355.00000	10331.01276
	1	28046.68102	28046.68102	4	170.00000	4877.56703	231.66667	6507.36825	293.33333	8374.48424	355.00000	10331.01276
	1	0.00000	0.00000	4	0.00000		0		0.33333		0		0.66667		0		1.00000		0
	1	63999.82230	63999.82230	4	396.00000	3208.98600	397.33333	3219.79067	398.66667	3230.59533	400.00000	3241.40000
	1	0.00000	0.00000	4	0.00000		0		16.66667		0		33.33333		0		50.00000		0
	1	0.00000	0.00000	4	0.00000		0		16.66667		0		33.33333		0		50.00000		0
	1	0.00000	0.00000	4	0.00000		0		16.66667		0		33.33333		0		50.00000		0
	1	0.00000	0.00000	4	0.00000		0		16.66667		0		33.33333		0		50.00000		0
	1	0.00000	0.00000	4	0.00000		0		16.66667		0		33.33333		0		50.00000		0
	1	0.00000	0.00000	4	0.00000		0		16.66667		0		33.33333		0		50.00000		0
	1	0.00000	0.00000	4	0.00000		0		16.66667		0		33.33333		0		50.00000		0
	1	0.00000	0.00000	4	0.00000		0		0.33333		0		0.66667		0		1.00000		0
	1	0.00000	0.00000	4	0.00000		0		16.66667		0		33.33333		0		50.00000		0
	1	0.00000	0.00000	4	0.00000		0		16.66667		0		33.33333		0		50.00000		0
	1	0.00000	0.00000	4	0.00000		0		16.66667		0		33.33333		0		50.00000		0
	1	0.00000	0.00000	4	0.00000		0		16.66667		0		33.33333		0		50.00000		0
	1	0.00000	0.00000	4	0.00000		0		16.66667		0		33.33333		0		50.00000		0
	1	0.00000	0.00000	4	0.00000		0		16.66667		0		33.33333		0		50.00000		0
	1	0.00000	0.00000	4	0.00000		0		16.66667		0		33.33333		0		50.00000		0
	1	0.00000	0.00000	4	0.00000		0		16.66667		0		33.33333		0		50.00000		0
	1	0.00000	0.00000	4	0.00000		0		16.66667		0		33.33333		0		50.00000		0
	1	0.00000	0.00000	4	0.00000		0		0.33333		0		0.66667		0		1.00000		0
	1	0.00000	0.00000	4	0.00000		0		16.66667		0		33.33333		0		50.00000		0
	1	0.00000	0.00000	4	0.00000		0		16.66667		0		33.33333		0		50.00000		0
	1	0.00000	0.00000	4	0.00000		0		16.66667		0		33.33333		0		50.00000		0
	1	0.00000	0.00000	4	0.00000		0		16.66667		0		33.33333		0		50.00000		0
	1	0.00000	0.00000	4	0.00000		0		17.20000		0		34.40000		0		51.60000		0
	1	0.00000	0.00000	4	0.00000		0		17.20000		0		34.40000		0		51.60000		0
	1	0.00000	0.00000	4	0.00000		0		17.20000		0		34.40000		0		51.60000		0
	1	0.00000	0.00000	4	0.00000		0		31.70000		0		63.40000		0		95.10000		0
	1	0.00000	0.00000	4	0.00000		0		30.90000		0		61.80000		0		92.70000		0
	1	0.00000	0.00000	4	0.00000		0		17.20000		0		34.40000		0		51.60000		0
	1	0.00000	0.00000	4	0.00000		0		31.10000		0		62.20000		0		93.30000		0
	1	0.00000	0.00000	4	0.00000		0		17.23333		0		34.46667		0		51.70000		0
	1	0.00000	0.00000	4	0.00000		0		16.56667		0		33.13333		0		49.70000		0
	1	0.00000	0.00000	4	0.00000		0		31.36667		0		62.73333		0		94.10000		0
	1	0.00000	0.00000	4	0.00000		0		17.20000		0		34.40000		0		51.60000		0
	1	0.00000	0.00000	4	0.00000		0		17.20000		0		34.40000		0		51.60000		0
	1	0.00000	0.00000	4	0.00000		0		17.00000		0		34.00000		0		51.00000		0
	1	0.00000	0.00000	4	0.00000		0		31.20000		0		62.40000		0		93.60000		0
	1	0.00000	0.00000	4	0.00000		0		62.73333		0		125.46667		0		188.20000		0
	1	0.00000	0.00000	4	0.00000		0		41.70000		0		83.40000		0		125.10000		0
	1	0.00000	0.00000	4	0.00000		0		8.53333		0		17.06667		0		25.60000		0
	1	0.00000	0.00000	4	0.00000		0		8.63333		0		17.26667		0		25.90000		0
	1	0.00000	0.00000	4	0.00000		0		8.43333		0		16.86667		0		25.30000		0
	1	0.00000	0.00000	4	0.00000		0		8.93333		0		17.86667		0		26.80000		0
	1	10000.00000	0.00000	4	30.00000	0.00000	66.00000	0.00000	120.00000	0.00000	160.00000	0.00000
	1	0.00000	0.00000	4	0.00000		0		8.90000		0		17.80000		0		26.70000		0
	1	0.00000	0.00000	4	0.00000		0		8.73333		0		17.46667		0		26.20000		0
	1	0.00000	0.00000	4	0.00000		0		8.60000		0		17.20000		0		25.80000		0
	1	0.00000	0.00000	4	0.00000		0		20.50000		0		41.00000		0		61.50000		0
	1	0.00000	0.00000	4	0.00000		0		22.20000		0		44.40000		0		66.60000		0
	1	0.00000	0.00000	4	0.00000		0		33.63333		0		67.26667		0		100.90000		0
	1	0.00000	0.00000	4	0.00000		0		33.90000		0		67.80000		0		101.70000		0
	1	0.00000	0.00000	4	0.00000		0		21.03333		0		42.06667		0		63.10000		0
	1	0.00000	0.00000	4	0.00000		0		21.80000		0		43.60000		0		65.40000		0
	1	0.00000	0.00000	4	0.00000		0		22.33333		0		44.66667		0		67.00000		0
	1	0.00000	0.00000	4	0.00000		0		21.60000		0		43.20000		0		64.80000		0
	1	0.00000	0.00000	4	0.00000		0		21.26667		0		42.53333		0		63.80000		0
	1	0.00000	0.00000	4	0.00000		0		21.36667		0		42.73333		0		64.10000		0
	1	0.00000	0.00000	4	0.00000		0		22.20000		0		44.40000		0		66.60000		0
	1	0.00000	0.00000	4	0.00000		0		20.80000		0		41.60000		0		62.40000		0
	1	0.00000	0.00000	4	0.00000		0		22.30000		0		44.60000		0		66.90000		0
	1	0.00000	0.00000	4	0.00000		0		21.73333		0		43.46667		0		65.20000		0
	1	0.00000	0.00000	4	0.00000		0		9.26667		0		18.53333		0		27.80000		0
	1	0.00000	0.00000	4	0.00000		0		9.10000		0		18.20000		0		27.30000		0
	1	0.00000	0.00000	4	0.00000		0		9.00000		0		18.00000		0		27.00000		0
	1	0.00000	0.00000	4	0.00000		0		9.43333		0		18.86667		0		28.30000		0
	1	0.00000	0.00000	4	0.00000		0		9.06667		0		18.13333		0		27.20000		0
	1	0.00000	0.00000	4	0.00000		0		9.00000		0		18.00000		0		27.00000		0
	1	0.00000	0.00000	4	0.00000		0		9.40000		0		18.80000		0		28.20000		0
	1	0.00000	0.00000	4	0.00000		0		3.10000		0		6.20000		0		9.30000		0
	1	0.00000	0.00000	4	0.00000		0		3.23333		0		6.46667		0		9.70000		0
	1	0.00000	0.00000	4	0.00000		0		3.13333		0		6.26667		0		9.40000		0
	1	0.00000	0.00000	4	0.00000		0		3.03333		0		6.06667		0		9.10000		0
	1	0.00000	0.00000	4	0.00000		0		3.03333		0		6.06667		0		9.10000		0
	1	0.00000	0.00000	4	0.00000		0		3.23333		0		6.46667		0		9.70000		0
	1	0.00000	0.00000	4	0.00000		0		3.13333		0		6.26667		0		9.40000		0
	1	0.00000	0.00000	4	0.00000		0		3.93333		0		7.86667		0		11.80000		0
	1	0.00000	0.00000	4	0.00000		0		3.73333		0		7.46667		0		11.20000		0
	1	0.00000	0.00000	4	0.00000		0		3.43333		0		6.86667		0		10.30000		0
	1	0.00000	0.00000	4	0.00000		0		1.50000		0		3.00000		0		4.50000		0
	1	0.00000	0.00000	4	0.00000		0		4.40000		0		8.80000		0		13.20000		0
	1	0.00000	0.00000	4	0.00000		0		49.43333		0		98.86667		0		148.30000		0
	1	0.00000	0.00000	4	0.00000		0		266.36667		0		532.73333		0		799.10000		0
	1	0.00000	0.00000	4	0.00000		0		282.33333		0		564.66667		0		847.00000		0
	1	0.00000	0.00000	4	0.00000		0		237.83333		0		475.66667		0		713.50000		0
	1	0.00000	0.00000	4	0.00000		0		16.66667		0		33.33333		0		50.00000		0
];


% bus names
%column_names%	name
mpc.bus_name = {
	'ABEL';
	'ADAMS';
	'ADLER';
	'AGRICOLA';
	'AIKEN';
	'ALBER';
	'ALDER';
	'ALGER';
	'ALI';
	'ALLEN';
	'ANNA';
	'ARCHER';
	'ARNE';
	'ARNOLD';
	'ARTHUR';
	'ASSER';
	'ASTON';
	'ASTOR';
	'ATTAR';
	'ATTILA';
	'ATTLEE';
	'AUBREY';
	'AUSTEN';
	'AVERY';
	'BACH';
	'BACON';
	'BAFFIN';
	'BAILEY';
	'BAIN';
	'BAJER';
	'BAKER';
	'BALCH';
	'BALZAC';
	'BANKS';
	'BARDEEN';
	'BARKLA';
	'BARLOW';
	'BARRY';
	'BARTON';
	'BASOV';
	'BATES';
	'BAYLE';
	'BEDE';
	'BEETHOVEN';
	'BEHRING';
	'BELL';
	'BLOCH';
	'BORDET';
	'CABELL';
	'CABOT';
	'CAESAR';
	'CAINE';
	'CALVIN';
	'CAMUS';
	'CAREW';
	'CARREL';
	'CARTER';
	'CARUSO';
	'CARY';
	'CAXTON';
	'CECIL';
	'CHAIN';
	'CHASE';
	'CHIFA';
	'CHUHSI';
	'CLARK';
	'CLAY';
	'CLIVE';
	'COBB';
	'COLE';
	'COMTE';
	'CURIE';
	'CURTISS';
};


% generator names types and fuels
%column_names%	name    type    fuel
mpc.gen_name = {
	'101_CT_1'	'CT'	'Oil';
	'101_CT_2'	'CT'	'Oil';
	'101_STEAM_3'	'STEAM'	'Coal';
	'101_STEAM_4'	'STEAM'	'Coal';
	'102_CT_1'	'CT'	'Oil';
	'102_CT_2'	'CT'	'Oil';
	'102_STEAM_3'	'STEAM'	'Coal';
	'102_STEAM_4'	'STEAM'	'Coal';
	'107_CC_1'	'CC'	'NG';
	'113_CT_1'	'CT'	'NG';
	'113_CT_2'	'CT'	'NG';
	'113_CT_3'	'CT'	'NG';
	'113_CT_4'	'CT'	'NG';
	'115_STEAM_1'	'STEAM'	'Oil';
	'115_STEAM_2'	'STEAM'	'Oil';
	'115_STEAM_3'	'STEAM'	'Coal';
	'116_STEAM_1'	'STEAM'	'Coal';
	'118_CC_1'	'CC'	'NG';
	'123_STEAM_2'	'STEAM'	'Coal';
	'123_STEAM_3'	'STEAM'	'Coal';
	'123_CT_1'	'CT'	'NG';
	'123_CT_4'	'CT'	'NG';
	'123_CT_5'	'CT'	'NG';
	'201_CT_1'	'CT'	'Oil';
	'201_CT_2'	'CT'	'Oil';
	'201_STEAM_3'	'STEAM'	'Coal';
	'202_CT_1'	'CT'	'Oil';
	'202_CT_2'	'CT'	'Oil';
	'202_STEAM_3'	'STEAM'	'Coal';
	'202_STEAM_4'	'STEAM'	'Coal';
	'207_CT_1'	'CT'	'NG';
	'207_CT_2'	'CT'	'NG';
	'213_CC_3'	'CC'	'NG';
	'213_CT_1'	'CT'	'NG';
	'213_CT_2'	'CT'	'NG';
	'215_CT_4'	'CT'	'NG';
	'215_CT_5'	'CT'	'NG';
	'216_STEAM_1'	'STEAM'	'Coal';
	'218_CC_1'	'CC'	'NG';
	'221_CC_1'	'CC'	'NG';
	'223_STEAM_1'	'STEAM'	'Coal';
	'223_STEAM_2'	'STEAM'	'Coal';
	'223_STEAM_3'	'STEAM'	'Coal';
	'223_CT_4'	'CT'	'NG';
	'223_CT_5'	'CT'	'NG';
	'223_CT_6'	'CT'	'NG';
	'301_CT_1'	'CT'	'Oil';
	'301_CT_2'	'CT'	'Oil';
	'301_CT_3'	'CT'	'NG';
	'301_CT_4'	'CT'	'NG';
	'302_CT_1'	'CT'	'Oil';
	'302_CT_2'	'CT'	'Oil';
	'302_CT_3'	'CT'	'NG';
	'302_CT_4'	'CT'	'NG';
	'307_CT_1'	'CT'	'NG';
	'307_CT_2'	'CT'	'NG';
	'313_CC_1'	'CC'	'NG';
	'315_STEAM_1'	'STEAM'	'Oil';
	'315_STEAM_2'	'STEAM'	'Oil';
	'315_STEAM_3'	'STEAM'	'Oil';
	'315_STEAM_4'	'STEAM'	'Oil';
	'315_STEAM_5'	'STEAM'	'Oil';
	'315_CT_6'	'CT'	'NG';
	'315_CT_7'	'CT'	'NG';
	'315_CT_8'	'CT'	'NG';
	'316_STEAM_1'	'STEAM'	'Coal';
	'318_CC_1'	'CC'	'NG';
	'321_CC_1'	'CC'	'NG';
	'322_CT_5'	'CT'	'NG';
	'322_CT_6'	'CT'	'NG';
	'323_CC_1'	'CC'	'NG';
	'323_CC_2'	'CC'	'NG';
	'114_SYNC_COND_1'	'SYNC_COND'	'Sync_Cond';
	'121_NUCLEAR_1'	'NUCLEAR'	'Nuclear';
	'122_HYDRO_1'	'HYDRO'	'Hydro';
	'122_HYDRO_2'	'HYDRO'	'Hydro';
	'122_HYDRO_3'	'HYDRO'	'Hydro';
	'122_HYDRO_4'	'HYDRO'	'Hydro';
	'122_HYDRO_5'	'HYDRO'	'Hydro';
	'122_HYDRO_6'	'HYDRO'	'Hydro';
	'201_HYDRO_4'	'HYDRO'	'Hydro';
	'214_SYNC_COND_1'	'SYNC_COND'	'Sync_Cond';
	'215_HYDRO_1'	'HYDRO'	'Hydro';
	'215_HYDRO_2'	'HYDRO'	'Hydro';
	'215_HYDRO_3'	'HYDRO'	'Hydro';
	'222_HYDRO_1'	'HYDRO'	'Hydro';
	'222_HYDRO_2'	'HYDRO'	'Hydro';
	'222_HYDRO_3'	'HYDRO'	'Hydro';
	'222_HYDRO_4'	'HYDRO'	'Hydro';
	'222_HYDRO_5'	'HYDRO'	'Hydro';
	'222_HYDRO_6'	'HYDRO'	'Hydro';
	'314_SYNC_COND_1'	'SYNC_COND'	'Sync_Cond';
	'322_HYDRO_1'	'HYDRO'	'Hydro';
	'322_HYDRO_2'	'HYDRO'	'Hydro';
	'322_HYDRO_3'	'HYDRO'	'Hydro';
	'322_HYDRO_4'	'HYDRO'	'Hydro';
	'320_PV_1'	'PV'	'Solar';
	'314_PV_1'	'PV'	'Solar';
	'314_PV_2'	'PV'	'Solar';
	'313_PV_1'	'PV'	'Solar';
	'314_PV_3'	'PV'	'Solar';
	'314_PV_4'	'PV'	'Solar';
	'313_PV_2'	'PV'	'Solar';
	'310_PV_1'	'PV'	'Solar';
	'324_PV_1'	'PV'	'Solar';
	'312_PV_1'	'PV'	'Solar';
	'310_PV_2'	'PV'	'Solar';
	'324_PV_2'	'PV'	'Solar';
	'324_PV_3'	'PV'	'Solar';
	'113_PV_1'	'PV'	'Solar';
	'319_PV_1'	'PV'	'Solar';
	'215_PV_1'	'PV'	'Solar';
	'102_PV_1'	'PV'	'Solar';
	'101_PV_1'	'PV'	'Solar';
	'102_PV_2'	'PV'	'Solar';
	'104_PV_1'	'PV'	'Solar';
	'212_CSP_1'	'CSP'	'Solar';
	'101_PV_2'	'PV'	'Solar';
	'101_PV_3'	'PV'	'Solar';
	'101_PV_4'	'PV'	'Solar';
	'103_PV_1'	'PV'	'Solar';
	'119_PV_1'	'PV'	'Solar';
	'308_RTPV_1'	'RTPV'	'Solar';
	'313_RTPV_1'	'RTPV'	'Solar';
	'313_RTPV_2'	'RTPV'	'Solar';
	'313_RTPV_3'	'RTPV'	'Solar';
	'313_RTPV_4'	'RTPV'	'Solar';
	'313_RTPV_5'	'RTPV'	'Solar';
	'313_RTPV_6'	'RTPV'	'Solar';
	'313_RTPV_7'	'RTPV'	'Solar';
	'313_RTPV_8'	'RTPV'	'Solar';
	'313_RTPV_9'	'RTPV'	'Solar';
	'313_RTPV_10'	'RTPV'	'Solar';
	'313_RTPV_11'	'RTPV'	'Solar';
	'313_RTPV_12'	'RTPV'	'Solar';
	'320_RTPV_1'	'RTPV'	'Solar';
	'320_RTPV_2'	'RTPV'	'Solar';
	'320_RTPV_3'	'RTPV'	'Solar';
	'313_RTPV_13'	'RTPV'	'Solar';
	'320_RTPV_4'	'RTPV'	'Solar';
	'320_RTPV_5'	'RTPV'	'Solar';
	'118_RTPV_1'	'RTPV'	'Solar';
	'118_RTPV_2'	'RTPV'	'Solar';
	'118_RTPV_3'	'RTPV'	'Solar';
	'118_RTPV_4'	'RTPV'	'Solar';
	'118_RTPV_5'	'RTPV'	'Solar';
	'118_RTPV_6'	'RTPV'	'Solar';
	'320_RTPV_6'	'RTPV'	'Solar';
	'118_RTPV_7'	'RTPV'	'Solar';
	'118_RTPV_8'	'RTPV'	'Solar';
	'118_RTPV_9'	'RTPV'	'Solar';
	'118_RTPV_10'	'RTPV'	'Solar';
	'213_RTPV_1'	'RTPV'	'Solar';
	'309_WIND_1'	'WIND'	'Wind';
	'317_WIND_1'	'WIND'	'Wind';
	'303_WIND_1'	'WIND'	'Wind';
	'122_WIND_1'	'WIND'	'Wind';
	'313_STORAGE_1'	'STORAGE'	'Storage';
};
