reference-matpower/bus-data.out
================================================================================
|     Bus Data                                                                 |
================================================================================
 Bus      Voltage          Generation             Load
  #   Mag(pu) Ang(deg)   P (MW)   Q (MVAr)   P (MW)   Q (MVAr)
----- ------- --------  --------  --------  --------  --------
  101  1.047   -8.575    168.00     10.68    108.00     22.00
  102  1.047   -8.634    168.00      4.66     97.00     20.00
  103  1.011   -7.980       -         -      180.00     37.00
  104  1.017  -10.745       -         -       74.00     15.00
  105  1.035  -10.928       -         -       71.00     14.00
  106  1.032  -13.157       -         -      136.00     28.00
  107  1.050   -3.989    355.00     49.51    125.00     25.00
  108  1.017   -9.342       -         -      171.00     35.00
  109  1.027   -8.460       -         -      175.00     36.00
  110  1.050  -10.203       -         -      195.00     40.00
  111  1.027   -4.083       -         -         -         -
  112  1.020   -2.396       -         -         -         -
  113  1.035    0.000*   220.00     76.07    265.00     54.00
  114  1.044   -2.552      0.00    103.20    194.00     39.00
  115  1.043    5.977    165.00     92.20    317.00     64.00
  116  1.046    5.824    155.00     79.87    100.00     20.00
  117  1.048    9.138       -         -         -         -
  118  1.050    9.952    355.00     68.45    333.00     68.00
  119  1.040    5.368       -         -      181.00     37.00
  120  1.044    6.847       -         -      128.00     26.00
  121  1.050   10.564    400.00    -21.93       -         -
  122  1.050   16.516    300.00    -40.76       -         -
  123  1.050    8.378    670.00     25.07       -         -
  124  1.013    0.844       -         -         -         -
  201  1.050  -12.611    142.00     21.73    108.00     22.00
  202  1.050  -12.651    168.00     14.28     97.00     20.00
  203  1.019   -9.121       -         -      180.00     37.00
  204  1.015  -14.429       -         -       74.00     15.00
  205  1.033  -14.929       -         -       71.00     14.00
  206  1.028  -17.155       -         -      136.00     28.00
  207  0.970  -22.392    110.00     38.00    125.00     25.00
  208  0.964  -21.696       -         -      171.00     35.00
  209  1.020  -11.846       -         -      175.00     36.00
  210  1.043  -14.163       -         -      195.00     40.00
  211  1.028   -5.950       -         -         -         -
  212  1.018   -4.164       -         -         -         -
  213  1.050   -0.390    465.00    154.25    265.00     54.00
  214  1.050   -4.128      0.00    125.29    194.00     39.00
  215  1.044    4.742    260.00     86.30    317.00     64.00
  216  1.047    4.679    155.00     79.81    100.00     20.00
  217  1.049    8.086       -         -         -         -
  218  1.050    8.906    355.00     60.31    333.00     68.00
  219  1.040    4.449       -         -      181.00     37.00
  220  1.044    6.123       -         -      128.00     26.00
  221  1.050    9.516    296.97     -7.62       -         -
  222  1.050   15.467    300.00    -41.84       -         -
  223  1.050    7.762    726.00      0.68       -         -
  224  1.017   -0.386       -         -         -         -
  301  1.050  -23.504    104.00     48.97    108.00     22.00
  302  1.050  -23.570    126.00     34.30     97.00     20.00
  303  0.998  -17.733       -         -      180.00     37.00
  304  1.007  -23.757       -         -       74.00     15.00
  305  1.028  -24.498       -         -       71.00     14.00
  306  1.020  -26.020       -         -      136.00     28.00
  307  0.957  -30.662    110.00     37.98    125.00     25.00
  308  0.951  -29.947       -         -      171.00     35.00
  309  1.007  -19.748       -         -      175.00     36.00
  310  1.032  -22.314       -         -      195.00     40.00
  311  1.018  -12.834       -         -         -         -
  312  1.003  -11.045       -         -         -         -
  313  1.035   -7.624    355.00    149.98    265.00     54.00
  314  1.050   -9.655      0.00    166.72    194.00     39.00
  315  1.042    1.503    190.00    128.78    317.00     64.00
  316  1.045    1.163    155.00     79.13    100.00     20.00
  317  1.047    5.119       -         -         -         -
  318  1.050    6.217    355.00     63.24    333.00     68.00
  319  1.039    0.850       -         -      181.00     37.00
  320  1.044    2.456       -         -      128.00     26.00
  321  1.050    6.905    355.00     -3.52       -         -
  322  1.050   12.932    310.00    -39.97       -         -
  323  1.050    4.057    710.00     74.93       -         -
  324  0.999   -5.501       -         -         -         -
  325  1.049    4.598       -         -         -         -
                        --------  --------  --------  --------
               Total:   8703.97   1718.74   8550.00   1740.00
